[TITLE]
;;Project Title/Notes

[OPTIONS]
;;Option             Value
FLOW_UNITS           CFS
INFILTRATION         HORTON
FLOW_ROUTING         KINWAVE
LINK_OFFSETS         DEPTH
MIN_SLOPE            0
ALLOW_PONDING        NO
SKIP_STEADY_STATE    NO

START_DATE           02/15/2019
START_TIME           00:00:00
REPORT_START_DATE    02/15/2019
REPORT_START_TIME    00:00:00
END_DATE             02/17/2019
END_TIME             00:00:00
SWEEP_START          01/01
SWEEP_END            12/31
DRY_DAYS             0
REPORT_STEP          01:00:00
WET_STEP             00:05:00
DRY_STEP             01:00:00
ROUTING_STEP         0:00:30 

INERTIAL_DAMPING     PARTIAL
NORMAL_FLOW_LIMITED  BOTH
FORCE_MAIN_EQUATION  H-W
VARIABLE_STEP        0.75
LENGTHENING_STEP     0
MIN_SURFAREA         12.557
MAX_TRIALS           8
HEAD_TOLERANCE       0.005
SYS_FLOW_TOL         5
LAT_FLOW_TOL         5
MINIMUM_STEP         0.5
THREADS              1

[EVAPORATION]
;;Data Source    Parameters
;;-------------- ----------------
CONSTANT         0.0
DRY_ONLY         NO

[RAINGAGES]
;;Name           Format    Interval SCF      Source    
;;-------------- --------- ------ ------ ----------
1                INTENSITY 1:00     1.0      TIMESERIES 2016.7.2        

[SUBCATCHMENTS]
;;Name           Rain Gage        Outlet           Area     %Imperv  Width    %Slope   CurbLen  Wu   g1 g2     SnowPack  
;;-------------- ---------------- ---------------- -------- -------- -------- -------- -------- --------- -------------------
80               1                1                0.6015   49.5     40       0.5      0          40    0.8 0.8          
81               1                73               0.8504   47.9     57       0.5      0          40     0.8 0.8        
83               1                9                0.4800   25       32       0.5      0          40      0.8 0.8      
84               1                52               0.3200   44.1     20       0.5      0          40       0.8 0.8     
85               1                68               0.8190   47       54       0.5      0          40         0.8 0.8   
86               1                31               0.3065   25       20       0.5      0          40         0.8 0.8   
87               1                20               1.2219   25       75       0.5      0          40        0.8 0.8   
91               1                8                0.5622   35.2     37       0.5      0          40        0.8 0.8    
92               1                58               0.2498   25       17       0.5      0          40        0.8 0.8    

[SUBAREAS]
;;Subcatchment   N-Imperv   N-Perv     S-Imperv   S-Perv     PctZero    RouteTo    PctRouted 
;;-------------- ---------- ---------- ---------- ---------- ---------- ---------- ----------
80               0.015      0.02       0.05       0.05       25         OUTLET    
81               0.015      0.02       0.05       0.05       25         OUTLET    
83               0.015      0.02       0.05       0.05       25         OUTLET    
84               0.015      0.02       0.05       0.05       25         OUTLET    
85               0.015      0.02       0.05       0.05       25         OUTLET    
86               0.015      0.02       0.05       0.05       25         OUTLET    
87               0.015      0.02       0.05       0.05       25         OUTLET    
91               0.015      0.1        0.05       0.05       25         OUTLET    
92               0.015      0.1        0.05       0.05       25         OUTLET    

[INFILTRATION]
;;Subcatchment   MaxRate    MinRate    Decay      DryTime    MaxInfil  
;;-------------- ---------- ---------- ---------- ---------- ----------
80               3.0        0.5        4          7          0         
81               3.0        0.5        4          7          0         
83               3.0        0.5        4          7          0         
84               3.0        0.5        4          7          0         
85               3.0        0.5        4          7          0         
86               3.0        0.5        4          7          0         
87               3.0        0.5        4          7          0         
91               3.0        0.5        4          7          0         
92               3.0        0.5        4          7          0         

[JUNCTIONS]
;;Name           Elevation  MaxDepth   InitDepth  SurDepth   Aponded   
;;-------------- ---------- ---------- ---------- ---------- ----------
1                23.3800    2          0          10         0         
4                22.7900    2          0          0          10        
7                22.5700    2          0          0          10        
8                23.0900    2          0          0          10        
9                22.5400    2          0          0          10        
11               22.1300    2          0          0          10        
16               22.5       2          0          0          10        
20               22.7500    4          0          0          10        
21               22.38      4          0          0          10        
26               22.28      2          0          0          10        
28               22.30      2          0          0          10        
29               22.5500    2          0          0          10        
31               22.5500    2          0          0          10        
32               22.40      2          0          0          10        
34               22.46      2          0          0          10        
35               23.2000    2          0          0          10        
36               23.1300    2          0          0          10        
37               23.00      2          0          0          10        
38               22.95      2          0          0          10        
39               22.9       2          0          0          10        
40               23.12      2          0          0          10        
41               22.87      2          0          0          10        
42               22.4400    2          0          0          10        
43               22.55      2          0          0          10        
52               22.9700    2          0          0          10        
54               22.64      2          0          0          10        
58               22.8400    2          0          0          10        
68               22.80      2          0          0          10        
73               23.30      0          0          0          10        
74               22.32      2          0          0          10        
75               22.4600    2          0          0          10        
77               22.6400    2          0          0          10        
88               22.05      2          0          0          10        

[OUTFALLS]
;;Name           Elevation  Type       Stage Data       Gated    Route To        
;;-------------- ---------- ---------- ---------------- -------- ----------------
14               22.00      FREE                        NO                       
24               22.20      FREE                        NO                       

[CONDUITS]
;;Name           From Node        To Node          Length     Roughness  InOffset   OutOffset  InitFlow   MaxFlow   
;;-------------- ---------------- ---------------- ---------- ---------- ---------- ---------- ---------- ----------
1                1                40               20         0.008      0          0          0          0         
2                40               4                25         0.008      0          0          0          0         
4                4                7                59         0.008      0          0          0          0         
5                37               38               35         0.008      0          0          0          0         
9                9                11               33         0.008      0          0          0          0         
11               16               11               82         0.008      0          0          0          0         
16               39               41               26         0.008      0          0          0          0         
17               41               42               32         0.008      0          0          0          0         
18               43               42               20         0.008      0          0          0          0         
34               74               28               27         0.008      0          0          0          0         
36               28               26               35         0.008      0          0          0          0         
38               77               75               49         0.008      0          0          0          0         
39               35               36               55         0.008      0          0          0          0         
41               36               75               70         0.008      0          0          0          0         
42               75               26               58         0.008      0          0          0          0         
43               26               24               60         0.008      0          0          0          0         
55               54               29               18         0.008      0          0          0          0         
60               20               21               47         0.008      0          0          0          0         
78               7                43               41         0.008      0          0          0          0         
88               8                37               40         0.008      0          0          0          0         
91               58               54               46         0.008      0          0          0          0         
94               73               35               12         0.008      0          0          0          0         
103              31               16               40         0.008      0          0          0          0         
104              42               88               60         0.008      0          0          0          0         
105              11               88               60         0.008      0          0          0          0         
106              88               14               5          0.008      0          0          0          0         
107              68               77               28         0.008      0          0          0          0         
108              29               34               16         0.008      0          0          0          0         
111              34               32               20         0.008      0          0          0          0         
112              21               74               20         0.008      0          0          0          0         
113              32               21               25         0.008      0          0          0          0         
114              52               54               100        0.008      0          0          0          0         
115              38               39               100        0.008      0          0          0          0         

[XSECTIONS]
;;Link           Shape        Geom1            Geom2      Geom3      Geom4      Barrels    Culvert   
;;-------------- ------------ ---------------- ---------- ---------- ---------- ---------- ----------
1                CIRCULAR     0.3              0          0          0          1                    
2                CIRCULAR     0.4              0          0          0          1                    
4                CIRCULAR     0.4              0          0          0          1                    
5                CIRCULAR     0.4              0          0          0          1                    
9                CIRCULAR     0.3              0          0          0          1                    
11               CIRCULAR     0.4              0          0          0          1                    
16               CIRCULAR     0.4              0          0          0          1                    
17               CIRCULAR     0.4              0          0          0          1                    
18               CIRCULAR     0.4              0          0          0          1                    
34               CIRCULAR     0.4              0          0          0          1                    
36               CIRCULAR     0.6              0          0          0          1                    
38               CIRCULAR     0.3              0          0          0          1                    
39               CIRCULAR     0.4              0          0          0          1                    
41               CIRCULAR     0.6              0          0          0          1                    
42               CIRCULAR     0.6              0          0          0          1                    
43               CIRCULAR     1                0          0          0          1                    
55               CIRCULAR     0.3              0          0          0          1                    
60               CIRCULAR     3                0          0          0          1                    
78               CIRCULAR     0.3              0          0          0          1                    
88               CIRCULAR     0.3              0          0          0          1                    
91               CIRCULAR     0.3              0          0          0          1                    
94               CIRCULAR     0.3              0          0          0          1                    
103              CIRCULAR     0.3              0          0          0          1                    
104              CIRCULAR     0.6              0          0          0          1                    
105              CIRCULAR     0.6              0          0          0          1                    
106              CIRCULAR     0.6              0          0          0          1                    
107              CIRCULAR     0.3              0          0          0          1                    
108              CIRCULAR     0.3              0          0          0          1                    
111              CIRCULAR     0.3              0          0          0          1                    
112              CIRCULAR     0.4              0          0          0          1                    
113              CIRCULAR     0.3              0          0          0          1                    
114              CIRCULAR     0.3              0          0          0          1                    
115              CIRCULAR     0.4              0          0          0          1                    

[TIMESERIES]
;;Name           Date       Time       Value     
;;-------------- ---------- ---------- ----------
2016.7.2                    1:00          0         
2016.7.2                    2:00          0         
2016.7.2                    3:00          1         
2016.7.2                    4:00          0.5       
2016.7.2                    5:00          0.5       
2016.7.2                    6:00          4.5       
2016.7.2                    7:00          3         
2016.7.2                    8:00          2.5       
2016.7.2                    9:00          5.5       
2016.7.2                    10:00         6.5       
2016.7.2                    11:00         20.5      
2016.7.2                    12:00         4.5       
2016.7.2                    13:00         2         
2016.7.2                    14:00         2.5       
2016.7.2                    15:00         1.5       
2016.7.2                    16:00         2         
2016.7.2                    17:00         5         
2016.7.2                    18:00         6         
2016.7.2                    19:00         12        
2016.7.2                    20:00         4         
2016.7.2                    21:00         1         
2016.7.2                    22:00         2         
2016.7.2                    23:00         6.5       
2016.7.2                    24:00         11.5      
2016.7.2                    25:00         1.5       
2016.7.2                    26:00         0         
2016.7.2                    27:00         0         
2016.7.2                    28:00         0.5       
2016.7.2                    29:00         1         
2016.7.2                    30:00         0.5       
2016.7.2                    31:00         0         
2016.7.2                    32:00         0         
2016.7.2                    33:00         0         
2016.7.2                    34:00         0         
2016.7.2                    35:00         0         
2016.7.2                    36:00         0         
2016.7.2                    37:00         0         
2016.7.2                    38:00         0         
2016.7.2                    39:00         0         
2016.7.2                    40:00         0         
2016.7.2                    41:00         0         
2016.7.2                    42:00         0         
2016.7.2                    43:00         0         
2016.7.2                    44:00         0.5       
2016.7.2                    45:00         0         
2016.7.2                    46:00         0         
2016.7.2                    47:00         0         
2016.7.2                    48:00         1.5       

[REPORT]
;;Reporting Options
INPUT      NO
CONTROLS   NO
SUBCATCHMENTS ALL
NODES ALL
LINKS ALL

[TAGS]

[MAP]
DIMENSIONS 538768.150 3392489.027 539199.255 3392780.535
Units      Meters

[COORDINATES]
;;Node           X-Coord            Y-Coord           
;;-------------- ------------------ ------------------
1                538814.493         3392623.542       
4                538911.144         3392648.996       
7                538933.633         3392606.564       
8                538891.625         3392608.685       
9                538911.213         3392562.742       
11               538924.298         3392540.370       
16               539002.373         3392581.104       
20               539106.755         3392551.402       
21               539082.164         3392612.030       
26               539167.357         3392624.030       
28               539122.896         3392623.019       
29               539028.680         3392605.715       
31               539002.373         3392591.288       
32               539058.791         3392601.297       
34               539044.805         3392599.775       
35               539068.142         3392707.128       
36               539117.186         3392744.172       
37               538921.327         3392624.385       
38               538915.506         3392634.364       
39               538821.327         3392602.326       
40               538822.461         3392606.139       
41               538794.456         3392588.318       
42               538808.883         3392556.918       
43               538824.582         3392542.916       
52               538965.881         3392663.423       
54               539011.283         3392612.504       
58               538941.695         3392613.777       
68               539113.527         3392663.467       
73               538941.270         3392657.906       
74               539088.035         3392617.714       
75               539144.520         3392677.850       
77               539135.076         3392671.833       
88               538841.131         3392498.362       
14               538844.525         3392490.724       
24               539192.672         3392561.186       

[VERTICES]
;;Link           X-Coord            Y-Coord           
;;-------------- ------------------ ------------------
9                538914.963         3392550.129       
9                538918.357         3392548.856       
39               539096.572         3392735.981       
39               539108.029         3392740.649       
91               538968.851         3392619.293       
91               538980.308         3392619.293       
91               538991.340         3392619.718       
91               539000.675         3392618.445       
91               539007.464         3392615.474       
111              539049.574         3392599.388       
111              539054.607         3392599.927       
114              539026.290         3392689.457       
114              539071.266         3392683.528       
114              539077.604         3392678.826       
114              539074.537         3392645.094       
114              539063.906         3392643.458       
114              539011.161         3392640.392       
114              539011.774         3392619.743       
115              538909.908         3392645.071       

[Polygons]
;;Subcatchment   X-Coord            Y-Coord           
;;-------------- ------------------ ------------------
80               538900.821         3392694.407       
80               538917.898         3392655.273       
80               538822.909         3392607.957       
80               538789.290         3392592.126       
80               538766.699         3392636.418       
81               539093.177         3392776.292       
81               539114.817         3392730.465       
81               539094.874         3392722.403       
81               539068.142         3392712.219       
81               539041.410         3392701.611       
81               539008.737         3392688.458       
81               538984.127         3392676.152       
81               538970.124         3392670.212       
81               538959.092         3392665.120       
81               538945.514         3392661.725       
81               538933.633         3392659.179       
81               538924.298         3392656.209       
81               538906.052         3392694.822       
83               538931.087         3392602.321       
83               538951.454         3392562.434       
83               538846.647         3392506.424       
83               538843.677         3392506.424       
83               538826.280         3392540.370       
84               538970.973         3392662.150       
84               538993.886         3392658.755       
84               539004.494         3392656.633       
84               539010.010         3392652.390       
84               539012.556         3392645.177       
84               539017.224         3392643.904       
84               539045.229         3392645.601       
84               539072.810         3392647.723       
84               539074.931         3392677.850       
84               539071.537         3392679.971       
84               539035.045         3392685.487       
84               539020.194         3392685.487       
84               538971.822         3392664.696       
84               538970.973         3392662.150       
85               539016.375         3392637.963       
85               539068.991         3392640.509       
85               539077.477         3392646.450       
85               539078.750         3392680.820       
85               539074.083         3392685.487       
85               539035.045         3392691.852       
85               539116.939         3392723.252       
85               539154.279         3392628.204       
85               539133.488         3392626.507       
85               539120.334         3392626.931       
85               539108.453         3392625.658       
85               539094.450         3392623.537       
85               539090.207         3392621.839       
85               539050.321         3392603.593       
85               539047.775         3392604.018       
85               539015.951         3392615.050       
85               539015.951         3392636.266       
86               538943.816         3392608.685       
86               538953.151         3392612.504       
86               538962.486         3392615.050       
86               538967.578         3392615.474       
86               538976.489         3392617.172       
86               538984.127         3392617.172       
86               538990.916         3392616.747       
86               538997.281         3392615.474       
86               539003.221         3392614.201       
86               539006.191         3392611.656       
86               539015.102         3392609.110       
86               539032.924         3392602.745       
86               539038.864         3392598.502       
86               539042.259         3392596.804       
86               539045.229         3392595.531       
86               539052.867         3392598.926       
86               539056.261         3392550.978       
86               539043.956         3392569.224       
86               539037.167         3392578.559       
86               539029.105         3392582.802       
86               539013.405         3392587.469       
86               539004.494         3392586.196       
86               538993.038         3392584.075       
86               538976.913         3392573.891       
86               538959.092         3392566.253       
86               538939.149         3392606.564       
87               539088.934         3392612.504       
87               539097.845         3392615.899       
87               539113.969         3392619.293       
87               539136.033         3392620.991       
87               539157.249         3392620.566       
87               539170.828         3392585.348       
87               539181.436         3392555.645       
87               539188.225         3392538.672       
87               539177.617         3392524.246       
87               539156.825         3392508.970       
87               539140.277         3392498.786       
87               539116.939         3392495.392       
87               539099.542         3392499.635       
87               539088.085         3392507.273       
87               539079.175         3392515.759       
87               539063.050         3392538.248       
87               539058.807         3392600.623       
91               538811.853         3392589.167       
91               538908.173         3392640.509       
91               538927.268         3392605.715       
91               538842.404         3392556.070       
91               538826.280         3392546.310       
91               538822.036         3392548.432       
91               538801.669         3392587.469       
92               538921.327         3392646.874       
92               538931.935         3392652.815       
92               538950.606         3392656.209       
92               538963.759         3392658.331       
92               538975.640         3392657.906       
92               538992.613         3392652.815       
92               539000.251         3392652.390       
92               539005.767         3392647.298       
92               539007.889         3392634.993       
92               539007.040         3392618.869       
92               539000.251         3392622.688       
92               538991.340         3392623.537       
92               538980.308         3392623.537       
92               538963.335         3392620.142       
92               538951.878         3392618.869       
92               538933.208         3392609.958       
92               538914.963         3392643.055       

[SYMBOLS]
;;Gage           X-Coord            Y-Coord           
;;-------------- ------------------ ------------------
1                538802.518         3392717.311       

