[TITLE]
;;Project Title/Notes

[OPTIONS]
;;Option             Value
FLOW_UNITS           CMS
INFILTRATION         HORTON
FLOW_ROUTING         DYNWAVE
LINK_OFFSETS         DEPTH
MIN_SLOPE            0
ALLOW_PONDING        NO
SKIP_STEADY_STATE    NO

START_DATE           05/17/2005
START_TIME           01:05:00
REPORT_START_DATE    05/17/2005
REPORT_START_TIME    01:05:00
END_DATE             05/17/2005
END_TIME             07:00:00
SWEEP_START          01/01
SWEEP_END            12/31
DRY_DAYS             0
REPORT_STEP          00:05:00
WET_STEP             00:05:00
DRY_STEP             01:00:00
ROUTING_STEP         0:00:30 

INERTIAL_DAMPING     PARTIAL
NORMAL_FLOW_LIMITED  BOTH
FORCE_MAIN_EQUATION  H-W
VARIABLE_STEP        0.75
LENGTHENING_STEP     0
MIN_SURFAREA         1.14
MAX_TRIALS           8
HEAD_TOLERANCE       0.005
SYS_FLOW_TOL         5
LAT_FLOW_TOL         5
MINIMUM_STEP         0.5
THREADS              1

[EVAPORATION]
;;Data Source    Parameters
;;-------------- ----------------
CONSTANT         0.0
DRY_ONLY         NO

[RAINGAGES]
;;Name           Format    Interval SCF      Source    
;;-------------- --------- ------ ------ ----------
1                VOLUME    0:05     1.0      TIMESERIES 20050517        

[SUBCATCHMENTS]
;;Name           Rain Gage        Outlet           Area     %Imperv  Width    %Slope   CurbLen  Wu   g1 g2  g3 TP SnowPack        
;;-------------- ---------------- ---------------- -------- -------- -------- -------- -------- ----------------
S1               1                J1               2.2093   96.8     400      0.05     0     40 0 0.8 0.05 1.0                    
S2               1                J0               7.2543   63.5     400      0.05     0     40 0 0.8 0.05 1.0                    
S3               1                J4               1.5314   42.8     400      0.05     0      40 0 0.8 0.05 1.0                   
S4               1                J8               6.1813   37.4     400      0.05     0      40 0 0.8 0.05 1.0                   
S5               1                J7               9.2784   37.3     400      0.05     0       40 0 0.8 0.05 1.0                  
S6               1                J5               6.9814   72.5     400      0.05     0       40 0 0.8 0.05 1.0                  
S7               1                J25              3.2820   58.6     400      0.05     0       40 0 0.8 0.05 1.0                  
S8               1                J11              10.6789  89.9     400      0.05     0        40 0 0.8 0.05 1.0                 
S9               1                J14              16.4279  45.5     400      0.05     0         40 0 0.8 0.05 1.0                
S10              1                J9               2.7340   52.3     400      0.05     0         40 0 0.8 0.05 1.0                
S11              1                J10              9.2733   51.1     700      0.05     0          40 0 0.8 0.05 1.0               
S12              1                J17              10.5828  77.5     400      0.05     0          40 0 0.8 0.05 1.0               
S13              1                J24              10.0766  78.8     500      0.05     0           40 0 0.8 0.05 1.0              
S14              1                J15              11.5342  57.8     400      0.05     0           40 0 0.8 0.05 1.0              
S15              1                J23              8.9167   66.5     400      0.05     0            40 0 0.8 0.05 1.0             

[SUBAREAS]
;;Subcatchment   N-Imperv   N-Perv     S-Imperv   S-Perv     PctZero    RouteTo    PctRouted 
;;-------------- ---------- ---------- ---------- ---------- ---------- ---------- ----------
S1               0.015      0.24       1.52       3.63       25         OUTLET    
S2               0.015      0.24       1.52       3.63       25         OUTLET    
S3               0.015      0.24       1.52       3.63       25         OUTLET    
S4               0.015      0.24       1.52       3.63       25         OUTLET    
S5               0.015      0.24       1.52       3.63       25         OUTLET    
S6               0.015      0.24       1.52       3.63       25         OUTLET    
S7               0.015      0.24       1.52       3.63       25         OUTLET    
S8               0.015      0.24       1.52       3.63       25         OUTLET    
S9               0.015      0.24       1.52       3.63       25         OUTLET    
S10              0.015      0.24       1.52       3.63       25         OUTLET    
S11              0.015      0.24       1.52       3.63       25         OUTLET    
S12              0.015      0.24       1.52       3.63       25         OUTLET    
S13              0.015      0.24       1.52       3.63       25         OUTLET    
S14              0.015      0.24       1.52       3.63       25         OUTLET    
S15              0.015      0.24       1.52       3.63       25         OUTLET    

[INFILTRATION]
;;Subcatchment   MaxRate    MinRate    Decay      DryTime    MaxInfil  
;;-------------- ---------- ---------- ---------- ---------- ----------
S1               20         5          4          7          0         
S2               20         5          4          7          0         
S3               20         5          4          7          0         
S4               20         5          4          7          0         
S5               20         5          4          7          0         
S6               20         5          4          7          0         
S7               20         5          4          7          0         
S8               20         5          4          7          0         
S9               20         5          4          7          0         
S10              20         5          4          7          0         
S11              20         5          4          7          0         
S12              20         5          4          7          0         
S13              20         5          4          7          0         
S14              20         5          4          7          0         
S15              20         5          4          7          0         

[JUNCTIONS]
;;Name           Elevation  MaxDepth   InitDepth  SurDepth   Aponded   
;;-------------- ---------- ---------- ---------- ---------- ----------
J0               30.99      4          0          0          0         
J1               28.99      4          0          0          0         
J2               25.99      4          0          0          0         
J3               30.99      4          0          0          0         
J4               33.99      4          0          0          0         
J5               28.99      4          0          0          0         
J6               23.79      4          0          0          0         
J7               28.39      4          0          0          0         
J8               29.99      4          0          0          0         
J9               28.69      4          0          0          0         
J10              25.99      4          0          0          0         
J11              25.69      4          0          0          0         
J12              22.79      4          0          0          0         
J13              25.29      4          0          0          0         
J14              24.59      4          0          0          0         
J15              24.19      4          0          0          0         
J16              23.39      4          0          0          0         
J17              22.09      4          0          0          0         
J18              16.00      4          0          0          0         
J20              17.70      4          0          0          0         
J21              19.00      4          0          0          0         
J23              22.29      4          0          0          0         
J24              20.89      4          0          0          0         
J25              30.19      4          0          0          0         

[OUTFALLS]
;;Name           Elevation  Type       Stage Data       Gated    Route To        
;;-------------- ---------- ---------- ---------------- -------- ----------------
J19              15.50      FREE                        NO                       

[CONDUITS]
;;Name           From Node        To Node          Length     Roughness  InOffset   OutOffset  InitFlow   MaxFlow   
;;-------------- ---------------- ---------------- ---------- ---------- ---------- ---------- ---------- ----------
C0               J0               J2               214        0.011      0          0          0.23       0         
C1               J1               J2               152        0.011      0          0          0          0         
C2               J3               J2               306        0.011      0          0          0          0         
C3               J4               J3               128        0.011      0          0          0          0         
C4               J2               J6               293        0.011      0          0          0.23       0         
C5               J5               J6               246        0.011      0          0          0          0         
C6               J25              J11              289        0.011      0          0          0          0         
C7               J6               J12              335        0.011      0          0          0.23       0         
C8               J7               J6               187        0.011      0          0          0          0         
C9               J8               J9               119        0.011      0          0          0          0         
C10              J9               J16              325        0.011      0          0          0          0         
C11              J10              J11              227        0.011      0          0          0          0         
C12              J12              J18              401        0.011      0          0          0.23       0         
C13              J17              J18              267        0.011      0          0          0          0         
C14              J11              J13              113        0.011      0          0          0          0         
C16              J13              J17              409        0.011      0          0          0          0         
C17              J24              J20              329        0.011      0          0          0          0         
C18              J20              J18              215        0.011      0          0          0          0         
C19              J16              J21              437        0.011      0          0          0          0         
C20              J21              J20              295        0.011      0          0          0          0         
C21              J23              J21              204        0.011      0          0          0          0         
C23              J18              J19              161        0.011      0          0          0.23       0         
C24              J15              J16              197        0.011      0          0          0          0         
C22              J14              J12              280        0.011      0          0          0          0         

[XSECTIONS]
;;Link           Shape        Geom1            Geom2      Geom3      Geom4      Barrels    Culvert   
;;-------------- ------------ ---------------- ---------- ---------- ---------- ---------- ----------
C0               CIRCULAR     0.7              0          0          0          1                    
C1               CIRCULAR     0.6              0          0          0          1                    
C2               CIRCULAR     0.8              0          0          0          1                    
C3               CIRCULAR     0.6              0          0          0          1                    
C4               CIRCULAR     1.2              0          0          0          1                    
C5               CIRCULAR     0.7              0          0          0          1                    
C6               CIRCULAR     0.8              0          0          0          1                    
C7               CIRCULAR     2.4              0          0          0          1                    
C8               CIRCULAR     0.7              0          0          0          1                    
C9               CIRCULAR     0.7              0          0          0          1                    
C10              CIRCULAR     1                0          0          0          1                    
C11              CIRCULAR     1.5              0          0          0          1                    
C12              CIRCULAR     3                0          0          0          1                    
C13              CIRCULAR     1.5              0          0          0          1                    
C14              CIRCULAR     1.5              0          0          0          1                    
C16              CIRCULAR     1.35             0          0          0          1                    
C17              CIRCULAR     0.8              0          0          0          1                    
C18              CIRCULAR     3                0          0          0          1                    
C19              CIRCULAR     3                0          0          0          1                    
C20              CIRCULAR     3                0          0          0          1                    
C21              CIRCULAR     1                0          0          0          1                    
C23              CIRCULAR     3.6              0          0          0          1                    
C24              CIRCULAR     1.1              0          0          0          1                    
C22              CIRCULAR     1.4              0          0          0          1                    

[TIMESERIES]
;;Name           Date       Time       Value     
;;-------------- ---------- ---------- ----------
20050408         04/08/2005 21:25      0         
20050408         04/08/2005 21:30      1         
20050408         04/08/2005 21:35      1.4       
20050408         04/08/2005 21:40      3.4       
20050408         04/08/2005 21:45      0.5       
20050408         04/08/2005 21:50      0.2       
20050408         04/08/2005 21:55      2.2       
20050408         04/08/2005 22:00      2.8       
20050408         04/08/2005 22:05      1.7       
20050408         04/08/2005 22:10      1.6       
20050408         04/08/2005 22:15      0.5       
20050408         04/08/2005 22:20      0.6       
20050408         04/08/2005 22:25      0.5       
20050408         04/08/2005 22:30      0.4       
20050408         04/08/2005 22:35      0.2       
20050408         04/08/2005 22:40      0.3       
20050408         04/08/2005 22:45      0.4       
20050408         04/08/2005 22:50      0.3       
20050408         04/08/2005 22:55      0.2       
20050408         04/08/2005 23:00      0.3       
20050408         04/08/2005 23:05      0.2       
20050408         04/08/2005 23:10      0.1       
;
20050517         05/17/2005 1:05       0.1       
20050517         05/17/2005 1:10       0.1       
20050517         05/17/2005 1:15       0.1       
20050517         05/17/2005 1:20       0.7       
20050517         05/17/2005 1:25       0.1       
20050517         05/17/2005 1:30       1.1       
20050517         05/17/2005 1:35       2         
20050517         05/17/2005 1:40       2         
20050517         05/17/2005 1:45       0.3       
20050517         05/17/2005 1:50       0.1       
20050517         05/17/2005 1:55       0         
20050517         05/17/2005 2:00       0         
20050517         05/17/2005 2:05       0.7       
20050517         05/17/2005 2:10       1.5       
20050517         05/17/2005 2:15       1.4       
20050517         05/17/2005 2:20       2.7       
20050517         05/17/2005 2:25       1.8       
20050517         05/17/2005 2:30       1.1       
20050517         05/17/2005 2:35       0.6       
20050517         05/17/2005 2:40       0.1       
20050517         05/17/2005 2:45       0.8       
20050517         05/17/2005 2:50       0.4       
20050517         05/17/2005 2:55       0.2       
20050517         05/17/2005 3:00       0.2       
20050517         05/17/2005 3:05       0.1       
20050517         05/17/2005 3:10       0.4       
20050517         05/17/2005 3:15       0.3       
20050517         05/17/2005 3:20       0.3       
20050517         05/17/2005 3:25       0.2       
20050517         05/17/2005 3:30       0.1       
20050517         05/17/2005 3:35       0.2       
;
20050610         06/10/2005 1:35       0         
20050610         06/10/2005 1:40       0.1       
20050610         06/10/2005 1:45       0         
20050610         06/10/2005 1:50       0.7       
20050610         06/10/2005 1:55       0.3       
20050610         06/10/2005 2:00       0.2       
20050610         06/10/2005 2:05       0.5       
20050610         06/10/2005 2:10       1.2       
20050610         06/10/2005 2:15       0.3       
20050610         06/10/2005 2:20       0.2       
20050610         06/10/2005 2:25       0.3       
20050610         06/10/2005 2:30       0.4       
20050610         06/10/2005 2:35       2.7       
20050610         06/10/2005 2:40       1.8       
20050610         06/10/2005 2:45       1.8       
20050610         06/10/2005 2:50       3.4       
20050610         06/10/2005 2:55       3.1       
20050610         06/10/2005 3:00       0.8       
20050610         06/10/2005 3:05       1.1       
20050610         06/10/2005 3:10       1         
20050610         06/10/2005 3:15       0.8       
20050610         06/10/2005 3:20       0.7       
20050610         06/10/2005 3:25       0.1       
20050610         06/10/2005 3:30       0         
20050610         06/10/2005 3:35       0         
20050610         06/10/2005 3:40       0         
20050610         06/10/2005 3:45       0.1       
20050610         06/10/2005 3:50       0         
20050610         06/10/2005 3:55       0         
20050610         06/10/2005 4:00       0.2       
20050610         06/10/2005 4:05       0.2       
20050610         06/10/2005 4:10       0.1       
20050610         06/10/2005 4:15       0         
20050610         06/10/2005 4:20       0.1       
20050610         06/10/2005 4:25       0         
20050610         06/10/2005 4:30       0         
20050610         06/10/2005 4:35       0.1       
20050610         06/10/2005 4:40       0.2       
;
20050626         06/26/2005 3:45       0         
20050626         06/26/2005 3:50       0.2       
20050626         06/26/2005 3:55       0.9       
20050626         06/26/2005 4:00       1.2       
20050626         06/26/2005 4:05       0.2       
20050626         06/26/2005 4:10       0.3       
20050626         06/26/2005 4:15       2.6       
20050626         06/26/2005 4:20       2         
20050626         06/26/2005 4:25       0.9       
20050626         06/26/2005 4:30       0.1       
20050626         06/26/2005 4:35       0         
20050626         06/26/2005 4:40       0         
20050626         06/26/2005 4:45       0         
20050626         06/26/2005 4:50       0         
20050626         06/26/2005 4:55       0         
20050626         06/26/2005 5:00       0         
20050626         06/26/2005 5:05       0         
20050626         06/26/2005 5:10       0         
20050626         06/26/2005 5:15       0.1       
20050626         06/26/2005 5:20       0         
20050626         06/26/2005 5:25       0         
20050626         06/26/2005 5:30       0         
20050626         06/26/2005 5:35       0         
20050626         06/26/2005 5:40       0.1       
20050626         06/26/2005 5:45       0.2       
20050626         06/26/2005 5:50       0         
20050626         06/26/2005 5:55       0.5       
20050626         06/26/2005 6:00       0         
20050626         06/26/2005 6:05       0.1       
20050626         06/26/2005 6:10       0         
20050626         06/26/2005 6:15       0         
20050626         06/26/2005 6:20       0         
20050626         06/26/2005 6:25       0         
20050626         06/26/2005 6:30       0.1       
20050626         06/26/2005 6:35       0         
20050626         06/26/2005 6:40       0         
20050626         06/26/2005 6:45       0         
20050626         06/26/2005 6:50       0         
20050626         06/26/2005 6:55       0         
20050626         06/26/2005 7:00       0.4       
20050626         06/26/2005 7:05       0.1       
20050626         06/26/2005 7:10       0.1       
20050626         06/26/2005 7:15       0.3       
20050626         06/26/2005 7:20       0.2       
20050626         06/26/2005 7:25       0.5       
20050626         06/26/2005 7:30       0.6       
20050626         06/26/2005 7:35       1         
20050626         06/26/2005 7:40       3.3       
20050626         06/26/2005 7:45       3.4       
20050626         06/26/2005 7:50       3.8       
20050626         06/26/2005 7:55       2.9       
20050626         06/26/2005 8:00       1         
20050626         06/26/2005 8:05       1.8       
20050626         06/26/2005 8:10       1.7       
20050626         06/26/2005 8:15       1.2       
20050626         06/26/2005 8:20       3.5       
20050626         06/26/2005 8:25       2.3       
20050626         06/26/2005 8:30       1.4       
20050626         06/26/2005 8:35       0.6       
20050626         06/26/2005 8:40       0.2       
20050626         06/26/2005 8:45       0.2       
20050626         06/26/2005 8:50       0.1       
20050626         06/26/2005 8:55       0.1       
20050626         06/26/2005 9:00       0.5       
20050626         06/26/2005 9:05       0.6       
20050626         06/26/2005 9:10       0.5       
20050626         06/26/2005 9:15       0.2       
20050626         06/26/2005 9:20       0.4       
20050626         06/26/2005 9:25       0.4       
20050626         06/26/2005 9:30       0.6       
20050626         06/26/2005 9:35       1.3       
20050626         06/26/2005 9:40       1.3       
20050626         06/26/2005 9:45       1         
20050626         06/26/2005 9:50       1         
20050626         06/26/2005 9:55       0.4       
20050626         06/26/2005 10:00      1         
20050626         06/26/2005 10:05      0.7       
20050626         06/26/2005 10:10      0.1       
20050626         06/26/2005 10:15      0.2       
20050626         06/26/2005 10:20      0.4       
20050626         06/26/2005 10:25      0.3       
20050626         06/26/2005 10:30      0.4       
20050626         06/26/2005 10:35      1.3       
20050626         06/26/2005 10:40      1         
20050626         06/26/2005 10:45      1.5       
20050626         06/26/2005 10:50      3.5       
20050626         06/26/2005 10:55      1.4       
20050626         06/26/2005 11:00      1.2       
20050626         06/26/2005 11:05      3.4       
20050626         06/26/2005 11:10      3.1       
20050626         06/26/2005 11:15      3.9       
20050626         06/26/2005 11:20      2.3       
20050626         06/26/2005 11:25      2.6       
20050626         06/26/2005 11:30      1.1       
20050626         06/26/2005 11:35      0.1       
20050626         06/26/2005 11:40      0.1       
;
20050710         07/10/2005 17:10      0         
20050710         07/10/2005 17:15      0.1       
20050710         07/10/2005 17:20      0.3       
20050710         07/10/2005 17:25      0.6       
20050710         07/10/2005 17:30      0.9       
20050710         07/10/2005 17:35      0.5       
20050710         07/10/2005 17:40      0.3       
20050710         07/10/2005 17:45      0.2       
20050710         07/10/2005 17:50      0.3       
20050710         07/10/2005 17:55      0.3       
20050710         07/10/2005 18:00      0.3       
20050710         07/10/2005 18:05      0.7       
20050710         07/10/2005 18:10      1.8       
20050710         07/10/2005 18:15      1         
20050710         07/10/2005 18:20      2         
20050710         07/10/2005 18:25      2         
20050710         07/10/2005 18:30      0.6       
20050710         07/10/2005 18:35      1.5       
20050710         07/10/2005 18:40      0.4       
20050710         07/10/2005 18:45      0.9       
20050710         07/10/2005 18:50      2.1       
20050710         07/10/2005 18:55      2.4       
20050710         07/10/2005 19:00      4.5       
20050710         07/10/2005 19:05      1.8       
20050710         07/10/2005 19:10      0.9       
20050710         07/10/2005 19:15      0.2       
20050710         07/10/2005 19:20      0.1       
20050710         07/10/2005 19:25      0         
20050710         07/10/2005 19:30      0         
20050710         07/10/2005 19:35      0.1       
20050710         07/10/2005 19:40      0         
20050710         07/10/2005 19:45      0         
20050710         07/10/2005 19:50      0         
20050710         07/10/2005 19:55      0.1       
20050710         07/10/2005 20:00      0.7       
20050710         07/10/2005 20:05      0.6       
20050710         07/10/2005 20:10      0.2       
20050710         07/10/2005 20:15      0.1       
20050710         07/10/2005 20:20      0.2       
20050710         07/10/2005 20:25      0.3       
20050710         07/10/2005 20:30      0.3       
20050710         07/10/2005 20:35      0.2       
20050710         07/10/2005 20:40      0.1       
20050710         07/10/2005 20:45      0.1       
20050710         07/10/2005 20:50      0         
20050710         07/10/2005 20:55      0.1       
20050710         07/10/2005 21:00      0.1       
20050710         07/10/2005 21:05      0.1       
20050710         07/10/2005 21:10      0.1       
;
20050722         07/22/2005 16:40      0         
20050722         07/22/2005 16:45      0.1       
20050722         07/22/2005 16:50      3.5       
20050722         07/22/2005 16:55      6.3       
20050722         07/22/2005 17:00      0.1       
20050722         07/22/2005 17:05      0         
20050722         07/22/2005 17:10      0         
20050722         07/22/2005 17:15      0         
20050722         07/22/2005 17:20      0         
20050722         07/22/2005 17:25      5.5       
20050722         07/22/2005 17:30      6.9       
20050722         07/22/2005 17:35      0.5       
20050722         07/22/2005 17:40      3.2       
20050722         07/22/2005 17:45      0.8       
20050722         07/22/2005 17:50      0.1       
;
20050803         8/3/2005   7:05       0         
20050803         8/3/2005   7:10       0.3       
20050803         8/3/2005   7:15       2.5       
20050803         8/3/2005   7:20       3.8       
20050803         8/3/2005   7:25       2         
20050803         8/3/2005   7:30       2.3       
20050803         8/3/2005   7:35       1.1       
20050803         8/3/2005   7:40       1.1       
20050803         8/3/2005   7:45       1.3       
20050803         8/3/2005   7:50       1.5       
20050803         8/3/2005   7:55       1.1       
20050803         8/3/2005   8:00       3.5       
20050803         8/3/2005   8:05       1.7       
20050803         8/3/2005   8:10       1         
20050803         8/3/2005   8:15       0.1       
20050803         8/3/2005   8:20       0         
20050803         8/3/2005   8:25       0.1       
20050803         8/3/2005   8:30       1.2       
20050803         8/3/2005   8:35       0.3       
20050803         8/3/2005   8:40       0.1       
20050803         8/3/2005   8:45       0         
20050803         8/3/2005   8:50       0.2       
20050803         8/3/2005   8:55       0.3       
20050803         8/3/2005   9:00       1.2       
20050803         8/3/2005   9:05       1.7       
20050803         8/3/2005   9:10       0.1       
20050803         8/3/2005   9:15       0         
20050803         8/3/2005   9:20       0         
20050803         8/3/2005   9:25       0         
20050803         8/3/2005   9:30       0         
20050803         8/3/2005   9:35       0.9       
20050803         8/3/2005   9:40       0.9       
20050803         8/3/2005   9:45       0.6       
20050803         8/3/2005   9:50       1.6       
20050803         8/3/2005   9:55       1.6       
20050803         8/3/2005   10:00      1         
20050803         8/3/2005   10:05      0.7       
20050803         8/3/2005   10:10      0.8       
20050803         8/3/2005   10:15      0.5       
20050803         8/3/2005   10:20      0.1       
20050803         8/3/2005   10:25      0.2       
20050803         8/3/2005   10:30      0.2       
20050803         8/3/2005   10:35      0.3       
20050803         8/3/2005   10:40      0.2       
20050803         8/3/2005   10:45      0.3       
20050803         8/3/2005   10:50      0.4       
20050803         8/3/2005   10:55      0.2       
20050803         8/3/2005   11:00      0.5       
20050803         8/3/2005   11:05      0.2       
20050803         8/3/2005   11:10      0.2       
20050803         8/3/2005   11:15      0.1       
20050803         8/3/2005   11:20      0.2       
20050803         8/3/2005   11:25      0.2       
20050803         8/3/2005   11:30      0.2       
20050803         8/3/2005   11:35      0.2       
20050803         8/3/2005   11:40      0.1       
20050803         8/3/2005   11:45      0.1       
20050803         8/3/2005   11:50      0.3       
;
total            04/08/2005 21:25      0         
total            04/08/2005 21:30      1         
total            04/08/2005 21:35      1.4       
total            04/08/2005 21:40      3.4       
total            04/08/2005 21:45      0.5       
total            04/08/2005 21:50      0.2       
total            04/08/2005 21:55      2.2       
total            04/08/2005 22:00      2.8       